obj01
  PyMOL2.4          3D                             0

 11 11  0  0  0  0  0  0  0  0999 V2000
    9.3680    1.1120   21.0320 O   0  0  0  0  0  0  0  0  0  0  0  0
    8.8120    0.3220   21.7270 C   0  0  0  0  0  0  0  0  0  0  0  0
    9.3520   -0.1440   23.0660 C   0  0  0  0  0  0  0  0  0  0  0  0
   10.8670   -0.0690   23.1260 C   0  0  0  0  0  0  0  0  0  0  0  0
    7.5600   -0.2470   21.3550 N   0  0  0  0  0  0  0  0  0  0  0  0
    6.9510    0.1800   20.1360 C   0  0  0  0  0  0  0  0  0  0  0  0
    5.7070    0.7820   20.2730 C   0  0  0  0  0  0  0  0  0  0  0  0
    5.0950    1.2170   19.1050 C   0  0  0  0  0  0  0  0  0  0  0  0
    5.7610    1.0320   17.9010 C   0  0  0  0  0  0  0  0  0  0  0  0
    6.9560    0.4630   17.8400 N   0  0  0  0  0  0  0  0  0  0  0  0
    7.5800    0.0350   18.9160 C   0  0  0  0  0  0  0  0  0  0  0  0
  1  2  2  0  0  0  0
  2  3  1  0  0  0  0
  2  5  1  0  0  0  0
  3  4  1  0  0  0  0
  5  6  1  0  0  0  0
  6  7  4  0  0  0  0
  6 11  4  0  0  0  0
  7  8  4  0  0  0  0
  8  9  4  0  0  0  0
  9 10  4  0  0  0  0
 10 11  4  0  0  0  0
M  END
$$$$
